**
**
**
** file created by  A N S A  Thu May  2 17:42:59 2013
**
** output from :
**
** /net/linux273/fs1/can/tpm_can_rtm/tpm_aniso_csr/Untitled
**
**
** ABAQUS names' user prefix library
**
** AMPLITUDE = XY
** BEAM_SECTION = P
** COHESIVE_SECTION = P
** CONNECTOR_DERIVED_COMPONENT = D
** CONNECTOR_DERIVED_COMPONENT(MatDB) = D
** CONNECTOR_SECTION = P
** CONTACT_CLEARANCE = CL
** CONTACT_PAIR = G
** CONTINUUM_SHELL_SECTION = P
** COUPLING = G
** CUTTING_SURFACE = G
** DASHPOT_PROP = A
** FASTENER_PROPERTY = A
** FILTER = F
** GAP_PROP = A
** GASKET_SECTION = P
** INTERACTION_OUTPUT = I
** JOINT_PROP = A
** MATERIAL = 
** ORIENTATION_C = OR
** ORIENTATION_NODES_C = OR
** ORIENTATION_NODES_DYN = OR
** ORIENTATION_NODES_R = OR
** ORIENTATION_NODES_S = OR
** ORIENTATION_OFFSET_TO_NODES = OR
** ORIENTATION_R = OR
** ORIENTATION_S = OR
** SECTION_CONTROL = A
** SET = S
** SHELL_SECTION = P
** SOLID_SECTION = P
** SPRING_PROP = A
** SURFACE = G
** SURFACE_INTERACTION = A
** SURFACE_SECTION = P
** TRUSS_PROP = A
**
*HEADING

**
**
**
*NODE
    4762,        -6.51297131060555,       1.5910067922123787,       -42.66439503949955
    4763,       -5.417757952286466,         7.91764033998016,      -47.367957495451584
    4767,       -7.382875190412547,        6.249916163609881,       -47.70915307881714
    4768,       -7.626562716126281,      0.29854500518998517,       -43.65490518775761
    4788,      -3.6544684870554924,       0.5494589085681519,       -40.77417159194442
    4789,        -5.33643791019228,        8.399353372465981,       -50.04364841623538
    4794,       -2.567553023836296,        6.028593274142651,      -42.576330186262524
    4797,       -2.784845145033648,        7.842726452018321,       -44.59918087753945
    4801,       -4.540033951546837,       2.8696331192798312,       -41.63890609957376
    4807,      0.25720623642355717,        6.501586324975735,       -42.44760612459953
    4834,       -8.861625037391324,       -4.062797518696115,        -48.2524012390101
    4838,       -7.816900207345654,        -5.93921760474485,      -51.577427725482295
    4880,       -4.727566104815842,       -8.175087005571227,      -46.881344763312605
    4891,       -7.282177342499868,       -1.519576912446022,       -43.42405366615448
    4892,       -7.925495629983063,       -4.138630830702767,       -45.66714134246347
    4904,        -8.68071711280893,       0.8721649450747296,      -45.243452850660674
    4917,      -1.5283227910383834,        -7.22270059585619,      -43.350386784673574
    4919,       0.6977541458643679,       -6.145646845187012,      -42.227461258471074
    4931,       -7.499040489274083,       -6.436818196983996,      -48.804519290968884
    4957,        5.397099078716785,      -6.9997834923804305,      -45.462989168224276
** ... 164 like lines cut
**
** MEMBRANE and STRUCTURAL ELEMENTS
**
*ELEMENT, TYPE=S4, ELSET=ball
    2887,     4767,     5661,     5687,     5682
    2889,     5682,     5373,     5213,     5387
    2899,     5687,     4762,     4768,     4904
    2910,     5651,     4891,     4768,     4762
    2929,     5645,     5687,     5661,     5685
    2934,     5645,     4801,     4762,     5687
    2942,     5584,     5630,     5399,     4789
    2944,     4763,     4767,     5584,     4789
    2946,     5064,     5684,     4788,     5690
    2949,     4794,     5645,     5685,     4797
    2950,     4763,     5631,     4797,     5685
    2954,     4788,     4801,     5638,     5690
    2955,     5689,     4789,     5399,     5693
    2961,     4794,     4797,     5188,     4807
    2962,     4797,     5631,     5688,     5188
    2970,     4807,     5173,     5638,     4794
    2993,     5633,     5632,     4880,     5648
    3002,     5668,     5648,     5669,     5140
    3004,     5674,     4891,     5658,     4892
    3017,     5641,     5654,     5695,     4880
** ... 162 like lines cut
**
** 
**
**
** 
**
**
** SECTION DATA
**
*SHELL SECTION, ELSET=ball, MATERIAL=Default MATERIAL
                      1.,
**
** MATERIALS
**
**
**Default MATERIAL
**
*MATERIAL, NAME=Default MATERIAL
*DENSITY
                 7.85E-9,
*ELASTIC, TYPE=ISOTROPIC
                 210000.,                      0.3
**
** 
**
