**
**
**
** file created by  A N S A  Thu May 16 16:11:06 2013
**
** output from :
**
** /net/linux273/fs1/can/tpm_can_rtm/tpm_aniso_csr_con/Untitled
**
**
** ABAQUS names' user prefix library
**
** AMPLITUDE = XY
** BEAM_SECTION = P
** COHESIVE_SECTION = P
** CONNECTOR_DERIVED_COMPONENT = D
** CONNECTOR_DERIVED_COMPONENT(MatDB) = D
** CONNECTOR_SECTION = P
** CONTACT_CLEARANCE = CL
** CONTACT_PAIR = G
** CONTINUUM_SHELL_SECTION = P
** COUPLING = G
** CUTTING_SURFACE = G
** DASHPOT_PROP = A
** FASTENER_PROPERTY = A
** FILTER = F
** GAP_PROP = A
** GASKET_SECTION = P
** INTERACTION_OUTPUT = I
** JOINT_PROP = A
** MATERIAL = 
** ORIENTATION_C = OR
** ORIENTATION_NODES_C = OR
** ORIENTATION_NODES_DYN = OR
** ORIENTATION_NODES_R = OR
** ORIENTATION_NODES_S = OR
** ORIENTATION_OFFSET_TO_NODES = OR
** ORIENTATION_R = OR
** ORIENTATION_S = OR
** SECTION_CONTROL = A
** SET = S
** SHELL_SECTION = P
** SOLID_SECTION = P
** SPRING_PROP = A
** SURFACE = G
** SURFACE_INTERACTION = A
** SURFACE_SECTION = P
** TRUSS_PROP = A
**
*HEADING

**
**
**
*NODE
    4762,             -3.944388005,              0.932316193,             -20.57590803
    4763,             -3.267546267,              4.775269838,             -23.41256831
    4767,             -4.442285841,              3.772363285,             -23.57333545
    4768,             -4.607575745,              0.199783285,             -21.16198848
    4788,             -2.184561116,              0.332186293,              -19.4217077
    4789,             -3.217528226,              5.064268903,             -25.02631718
    4794,             -1.539957296,              3.640911155,             -20.48643185
    4797,             -1.689127422,              4.736862242,              -21.7275415
    4801,             -2.736391831,               1.72784974,             -19.94760502
    4807,              0.155969014,              3.872401811,             -20.41958759
    4834,              -5.36763489,             -2.463868763,             -23.94271744
    4838,              -4.71604126,             -3.585882325,             -25.94889556
    4880,             -2.843106045,             -4.936181757,             -23.11562804
    4891,             -4.408781843,             -0.870100339,             -21.02437828
    4892,             -4.787034077,              -2.49937357,             -22.38515077
    4904,             -5.220157031,              0.515635963,             -22.08725557
    4917,             -0.922916903,             -4.361612942,             -20.98446057
    4919,              0.421468465,             -3.712190543,             -20.30510855
    4931,             -4.515858756,             -3.883775853,              -24.2766019
    4957,              3.232674066,             -4.241166248,             -22.25003141
** ... 2170 like lines cut
**
** SOLID ELEMENTS
**
*ELEMENT, TYPE=C3D8, ELSET=P2;tum_1
    4317,     6105,     5763,     5661,     5807,     6390,     6732,     6834,     6688
    4318,     6390,     6732,     6834,     6688,     7565,     7223,     7121,     7267
    4319,     6106,     5797,     5373,     5761,     6389,     6698,     6900,     6734
    4320,     6389,     6698,     6900,     6734,     7566,     7257,     7055,     7221
    4321,     6076,     5712,     4762,     5727,     6419,     6783,     6977,     6768
    4322,     6419,     6783,     6977,     6768,     7536,     7172,     6978,     7187
    4323,     6073,     5724,     4891,     5708,     6422,     6771,     6964,     6787
    4324,     6422,     6771,     6964,     6787,     7533,     7184,     6991,     7168
    4325,     6085,     5763,     5687,     5728,     6410,     6732,     6808,     6767
    4326,     6410,     6732,     6808,     6767,     7545,     7223,     7147,     7188
    4327,     6074,     5710,     4801,     5731,     6421,     6785,     6969,     6764
    4328,     6421,     6785,     6969,     6764,     7534,     7170,     6986,     7191
    4329,     6132,     5916,     5630,     5858,     6363,     6579,     6865,     6637
    4330,     6363,     6579,     6865,     6637,     7592,     7376,     7090,     7318
    4331,     6128,     5804,     4767,     5808,     6367,     6691,     6975,     6687
    4332,     6367,     6691,     6975,     6687,     7588,     7264,     6980,     7268
    4333,     6068,     5703,     5684,     5716,     6427,     6792,     6811,     6779
    4334,     6427,     6792,     6811,     6779,     7528,     7163,     7144,     7176
    4335,     6088,     5762,     5645,     5732,     6407,     6733,     6850,     6763
    4336,     6407,     6733,     6850,     6763,     7548,     7222,     7105,     7192
** ... 1436 like lines cut
**
** 
**
**
** 
**
**
** SECTION DATA
**
*SOLID SECTION, ELSET=P2;tum_1, MATERIAL=Default MATERIAL
**
** MATERIALS
**
**
**Default MATERIAL
**
*MATERIAL, NAME=Default MATERIAL
*DENSITY
                 7.85E-9,
*ELASTIC, TYPE=ISOTROPIC
                 210000.,                      0.3
**
** 
**
** 
** SETS
** 
*NSET, NSET=S1;arter_input
    6994,     6995,     6997,     7003,     7005,     7007,     7012,     7014,     7015,     7016,
    7018,     7019,     7031,     7045,     7046,     7052,     7058,     7079,     7081,     7089,
    7093,     7106,     7108,     7109,     7110,     7111,     7112,     7113,     7114,     7122,
    7125,     7128,     7129,     7135,     7155,     7165,     7169,     7178,     7180,     7205,
    7207,     7235,     7237,     7239,     7243,     7244,     7246,     7248,     7249,     7289,
    7292,     7294,     7297,     7298,     7299,     7301,     7303,     7305,     7316,     7346,
    7349,     7351,     7355,     7372,     7374,     7417,     7420,     7436,     7439,     7474,
    7538,     7539,     7575,     7577
*NSET, NSET=S2;smallest
    6997,     7003,     7005,     7015,     7016,     7031,     7045,     7046,     7052,     7058,
    7079,     7093,     7106,     7109,     7110,     7111,     7112,     7113,     7114,     7122,
    7125,     7135,     7155,     7165,     7169,     7178,     7180,     7205,     7235,     7237,
    7289,     7292,     7294,     7299,     7303,     7305,     7316,     7346,     7372,     7374,
    7417,     7420,     7436,     7439,     7474,     7538,     7539,     7575
*NSET, NSET=S3;mid
    6994,     6995,     7007,     7012,     7014,     7019,     7081,     7089,     7108,     7128,
    7129,     7207,     7239,     7248,     7249,     7301,     7349,     7351,     7355
