**
**
**
** file created by  A N S A  Sun Mar 10 18:21:41 2013
**
** output from :
**
** /net/linux273/fs1/can/tpm_can_rtm/tpm_iso/Untitled
**
**
** ABAQUS names' user prefix library
**
** AMPLITUDE = XY
** BEAM_SECTION = P
** COHESIVE_SECTION = P
** CONNECTOR_DERIVED_COMPONENT = D
** CONNECTOR_DERIVED_COMPONENT(MatDB) = D
** CONNECTOR_SECTION = P
** CONTACT_CLEARANCE = CL
** CONTACT_PAIR = G
** CONTINUUM_SHELL_SECTION = P
** COUPLING = G
** CUTTING_SURFACE = G
** DASHPOT_PROP = A
** FASTENER_PROPERTY = A
** FILTER = F
** GAP_PROP = A
** GASKET_SECTION = P
** INTERACTION_OUTPUT = I
** JOINT_PROP = A
** MATERIAL = 
** ORIENTATION_C = OR
** ORIENTATION_NODES_C = OR
** ORIENTATION_NODES_DYN = OR
** ORIENTATION_NODES_R = OR
** ORIENTATION_NODES_S = OR
** ORIENTATION_OFFSET_TO_NODES = OR
** ORIENTATION_R = OR
** ORIENTATION_S = OR
** SECTION_CONTROL = A
** SET = S
** SHELL_SECTION = P
** SOLID_SECTION = P
** SPRING_PROP = A
** SURFACE = G
** SURFACE_INTERACTION = A
** SURFACE_SECTION = P
** TRUSS_PROP = A
**
*HEADING

**
**
**
*NODE
       1,       10.000000000000004,        9.999999999999996,                       0.
       2,       10.000000000000004,       19.999999999999993,                       0.
       3,       19.999999999999996,       10.000000000000002,                       0.
       4,                      10.,                      30.,                       0.
       5,                      30.,       10.000000000000007,                       0.
       6,       20.000000000000004,       20.000000000000004,                       0.
       7,                      10.,       39.999999999999986,                       0.
       8,       30.000000000000004,                      20.,                       0.
       9,                      40.,       10.000000000000004,                       0.
      10,                      20.,       30.000000000000004,                       0.
      11,       20.000000000000004,       39.999999999999986,                       0.
      12,                      10.,        49.99999999999999,                       0.
      13,        49.99999999999999,       10.000000000000005,                       0.
      14,       30.000000000000007,                      30.,                       0.
      15,       40.000000000000014,       20.000000000000007,                       0.
      16,       30.000000000000007,        39.99999999999999,                       0.
      17,                      60.,                      10.,                       0.
      18,       20.000000000000018,       49.999999999999986,                       0.
      19,       10.000000000000007,       59.999999999999986,                       0.
      20,       50.000000000000014,                      20.,                       0.
** ... 343 like lines cut
**
** SOLID ELEMENTS
**
*ELEMENT, TYPE=C3D8, ELSET=P2;my_solids
     101,       82,       83,       84,        1,      203,      204,      205,      122
     102,      203,      204,      205,      122,      324,      325,      326,      243
     103,        1,        2,       85,       82,      122,      123,      206,      203
     104,      122,      123,      206,      203,      243,      244,      327,      324
     105,        1,       84,       86,        3,      122,      205,      207,      124
     106,      122,      205,      207,      124,      243,      326,      328,      245
     107,        4,       87,       85,        2,      125,      208,      206,      123
     108,      125,      208,      206,      123,      246,      329,      327,      244
     109,        3,        6,        2,        1,      124,      127,      123,      122
     110,      124,      127,      123,      122,      245,      248,      244,      243
     111,        5,        3,       86,       88,      126,      124,      207,      209
     112,      126,      124,      207,      209,      247,      245,      328,      330
     113,       89,       87,        4,        7,      210,      208,      125,      128
     114,      210,      208,      125,      128,      331,      329,      246,      249
     115,        6,        3,        5,        8,      127,      124,      126,      129
     116,      127,      124,      126,      129,      248,      245,      247,      250
     117,        2,        6,       10,        4,      123,      127,      131,      125
     118,      123,      127,      131,      125,      244,      248,      252,      246
     119,        9,        5,       88,       90,      130,      126,      209,      211
     120,      130,      126,      209,      211,      251,      247,      330,      332
** ... 180 like lines cut
**
** 
**
**
** 
**
**
** SECTION DATA
**
*SOLID SECTION, ELSET=P2;my_solids, MATERIAL=Default MATERIAL
0.15, 3, somemat, 0 
0.15, 3, somemat, 45
0.15, 3, somemat, -45
0.15, 3, somemat, 90
**
** MATERIALS
**
**
**Default MATERIAL
**
*MATERIAL, NAME=Default MATERIAL
*DENSITY
                 7.85E-9,
*ELASTIC, TYPE=ISOTROPIC
                 210000.,                      0.3
**
** 
**
