**
**
**
** file created by  A N S A  Fri Jan 18 14:56:20 2013
**
** output from :
**
** /net/linux273/fs1/can/tpm/Untitled
**
**
** ABAQUS names' user prefix library
**
** AMPLITUDE = XY
** BEAM_SECTION = P
** COHESIVE_SECTION = P
** CONNECTOR_DERIVED_COMPONENT = D
** CONNECTOR_DERIVED_COMPONENT(MatDB) = D
** CONNECTOR_SECTION = P
** CONTACT_CLEARANCE = CL
** CONTACT_PAIR = G
** CONTINUUM_SHELL_SECTION = P
** COUPLING = G
** CUTTING_SURFACE = G
** DASHPOT_PROP = A
** FASTENER_PROPERTY = A
** FILTER = F
** GAP_PROP = A
** GASKET_SECTION = P
** INTERACTION_OUTPUT = I
** JOINT_PROP = A
** MATERIAL = 
** ORIENTATION_C = OR
** ORIENTATION_NODES_C = OR
** ORIENTATION_NODES_DYN = OR
** ORIENTATION_NODES_R = OR
** ORIENTATION_NODES_S = OR
** ORIENTATION_OFFSET_TO_NODES = OR
** ORIENTATION_R = OR
** ORIENTATION_S = OR
** SECTION_CONTROL = A
** SET = S
** SHELL_SECTION = P
** SOLID_SECTION = P
** SPRING_PROP = A
** SURFACE = G
** SURFACE_INTERACTION = A
** SURFACE_SECTION = P
** TRUSS_PROP = A
**
*HEADING

**
**
**
*NODE
      83,                       0.,                       0.,                       0.
     101,                      10.,                       0.,                       0.
     104,                       0.,                      10.,                       0.
     121,                      10.,                      10.,                       0.
     131,                       0.,                      2.5,                       0.
     134,                       0.,                       5.,                       0.
     136,                       0.,                      7.5,                       0.
     138,                      2.5,                      10.,                       0.
     139,                      10.,       2.5000000000000004,                       0.
     140,                       5.,                      10.,                       0.
     141,                      10.,                       5.,                       0.
     142,                      7.5,                      10.,                       0.
     143,                      10.,                      7.5,                       0.
     144,                      2.5,                      2.5,                       0.
     145,                      2.5,                       5.,                       0.
     146,                       5.,                      2.5,                       0.
     147,                       5.,                       5.,                       0.
     148,                      7.5,                      2.5,                       0.
     149,                      2.5,                      7.5,                       0.
     150,                      7.5,                       5.,                       0.
** ... 255 like lines cut
**
** SOLID ELEMENTS
**
*ELEMENT, TYPE=C3D8, ELSET=solids_example
      17,      131,       83,      153,      144,      235,      237,      240,      238
      18,      235,      237,      240,      238,      210,      226,      219,      221
      19,      210,      226,      219,      221,      185,      201,      194,      196
      20,      185,      201,      194,      196,      160,      176,      169,      171
      21,      160,      176,      169,      171,      272,      256,      263,      261
      22,      272,      256,      263,      261,      297,      281,      288,      286
      23,      297,      281,      288,      286,      322,      306,      313,      311
      24,      322,      306,      313,      311,      347,      331,      338,      336
      25,      347,      331,      338,      336,      372,      356,      363,      361
      26,      372,      356,      363,      361,      397,      381,      388,      386
      27,      144,      153,      154,      146,      238,      240,      241,      250
      28,      238,      240,      241,      250,      221,      219,      222,      213
      29,      221,      219,      222,      213,      196,      194,      197,      188
      30,      196,      194,      197,      188,      171,      169,      172,      163
      31,      171,      169,      172,      163,      261,      263,      260,      269
      32,      261,      263,      260,      269,      286,      288,      285,      294
      33,      286,      288,      285,      294,      311,      313,      310,      319
      34,      311,      313,      310,      319,      336,      338,      335,      344
      35,      336,      338,      335,      344,      361,      363,      360,      369
      36,      361,      363,      360,      369,      386,      388,      385,      394
** ... 140 like lines cut
**
** 
**
**
** 
**
**
** SECTION DATA
**
*SOLID SECTION, ELSET=solids_example, MATERIAL=Default MATERIAL
**
** MATERIALS
**
**
**Default MATERIAL
**
*MATERIAL, NAME=Default MATERIAL
*DENSITY
                 7.85E-9,
*ELASTIC, TYPE=ISOTROPIC
                 210000.,                      0.3
**
** 
**
