**
**
**
** file created by  A N S A  Tue Apr 16 19:07:02 2013
**
** output from :
**
** /net/linux273/fs1/can/tpm_can_rtm/tpm_aniso_csr/Untitled
**
**
** ABAQUS names' user prefix library
**
** AMPLITUDE = XY
** BEAM_SECTION = P
** COHESIVE_SECTION = P
** CONNECTOR_DERIVED_COMPONENT = D
** CONNECTOR_DERIVED_COMPONENT(MatDB) = D
** CONNECTOR_SECTION = P
** CONTACT_CLEARANCE = CL
** CONTACT_PAIR = G
** CONTINUUM_SHELL_SECTION = P
** COUPLING = G
** CUTTING_SURFACE = G
** DASHPOT_PROP = A
** FASTENER_PROPERTY = A
** FILTER = F
** GAP_PROP = A
** GASKET_SECTION = P
** INTERACTION_OUTPUT = I
** JOINT_PROP = A
** MATERIAL = 
** ORIENTATION_C = OR
** ORIENTATION_NODES_C = OR
** ORIENTATION_NODES_DYN = OR
** ORIENTATION_NODES_R = OR
** ORIENTATION_NODES_S = OR
** ORIENTATION_OFFSET_TO_NODES = OR
** ORIENTATION_R = OR
** ORIENTATION_S = OR
** SECTION_CONTROL = A
** SET = S
** SHELL_SECTION = P
** SOLID_SECTION = P
** SPRING_PROP = A
** SURFACE = G
** SURFACE_INTERACTION = A
** SURFACE_SECTION = P
** TRUSS_PROP = A
**
*HEADING

**
**
**
*NODE
       1,                  103.831,                 -45.6217,                  33.6931
       2,                  98.8054,                 -45.1731,                  32.0602
       3,                  97.4772,                 -45.1796,                  36.1189
       4,                  102.506,                 -45.6277,                  37.7559
       5,                  103.831,                 -44.8693,                  33.6961
       6,                  98.8054,                 -44.4201,                  32.0632
       7,                  97.4772,                 -44.4265,                  36.1215
       8,                  102.506,                 -44.8751,                  37.7585
       9,                  103.831,                 -44.1167,                   33.699
      10,                  98.8054,                 -43.6669,                  32.0662
      11,                  97.4772,                 -43.6735,                  36.1241
      12,                  102.506,                 -44.1227,                   37.761
      13,                  103.831,                 -43.3642,                   33.702
      14,                  98.8054,                 -42.9139,                  32.0692
      15,                  97.4772,                 -42.9204,                  36.1267
      16,                  102.506,                 -43.3701,                  37.7636
      17,                  103.829,                 -42.6117,                   33.705
      18,                  98.8035,                 -42.1608,                  32.0722
      19,                  97.4754,                 -42.1674,                  36.1293
      20,                  102.504,                 -42.6176,                  37.7662
** ... 13424 like lines cut
**
** MEMBRANE and STRUCTURAL ELEMENTS
**
*ELEMENT, TYPE=S4, ELSET=x1
       1,        1,        2,        3,        4
      17,       65,       66,        2,        1
      33,      129,        1,        4,      132
      49,      193,       65,        1,      129
      65,      257,      129,      132,      260
      81,      321,      193,      129,      257
      97,      385,      257,      260,      388
     113,      449,      321,      257,      385
     129,      513,      385,      388,      516
     145,      577,      449,      385,      513
     161,      641,      513,      516,      644
     177,      705,      577,      513,      641
     193,      769,      641,      644,      772
     209,      833,      705,      641,      769
     225,      897,      769,      772,      900
     241,      961,      833,      769,      897
     257,     1025,      897,      900,     1028
     273,     1089,      961,      897,     1025
     289,     1153,     1025,     1028,     1156
     305,     1217,     1089,     1025,     1153
** ... 759 like lines cut
*ELEMENT, TYPE=S4, ELSET=x2
       2,        5,        6,        7,        8
      18,       69,       70,        6,        5
      34,      133,        5,        8,      136
      50,      197,       69,        5,      133
      66,      261,      133,      136,      264
      82,      325,      197,      133,      261
      98,      389,      261,      264,      392
     114,      453,      325,      261,      389
     130,      517,      389,      392,      520
     146,      581,      453,      389,      517
     162,      645,      517,      520,      648
     178,      709,      581,      517,      645
     194,      773,      645,      648,      776
     210,      837,      709,      645,      773
     226,      901,      773,      776,      904
     242,      965,      837,      773,      901
     258,     1029,      901,      904,     1032
     274,     1093,      965,      901,     1029
     290,     1157,     1029,     1032,     1160
     306,     1221,     1093,     1029,     1157
** ... 759 like lines cut
*ELEMENT, TYPE=S4, ELSET=x3
       3,        9,       10,       11,       12
      19,       73,       74,       10,        9
      35,      137,        9,       12,      140
      51,      201,       73,        9,      137
      67,      265,      137,      140,      268
      83,      329,      201,      137,      265
      99,      393,      265,      268,      396
     115,      457,      329,      265,      393
     131,      521,      393,      396,      524
     147,      585,      457,      393,      521
     163,      649,      521,      524,      652
     179,      713,      585,      521,      649
     195,      777,      649,      652,      780
     211,      841,      713,      649,      777
     227,      905,      777,      780,      908
     243,      969,      841,      777,      905
     259,     1033,      905,      908,     1036
     275,     1097,      969,      905,     1033
     291,     1161,     1033,     1036,     1164
     307,     1225,     1097,     1033,     1161
** ... 759 like lines cut
*ELEMENT, TYPE=S4, ELSET=x4
       4,       13,       14,       15,       16
      20,       77,       78,       14,       13
      36,      141,       13,       16,      144
      52,      205,       77,       13,      141
      68,      269,      141,      144,      272
      84,      333,      205,      141,      269
     100,      397,      269,      272,      400
     116,      461,      333,      269,      397
     132,      525,      397,      400,      528
     148,      589,      461,      397,      525
     164,      653,      525,      528,      656
     180,      717,      589,      525,      653
     196,      781,      653,      656,      784
     212,      845,      717,      653,      781
     228,      909,      781,      784,      912
     244,      973,      845,      781,      909
     260,     1037,      909,      912,     1040
     276,     1101,      973,      909,     1037
     292,     1165,     1037,     1040,     1168
     308,     1229,     1101,     1037,     1165
** ... 759 like lines cut
*ELEMENT, TYPE=S4, ELSET=x5
       5,       17,       18,       19,       20
      21,       81,       82,       18,       17
      37,      145,       17,       20,      148
      53,      209,       81,       17,      145
      69,      273,      145,      148,      276
      85,      337,      209,      145,      273
     101,      401,      273,      276,      404
     117,      465,      337,      273,      401
     133,      529,      401,      404,      532
     149,      593,      465,      401,      529
     165,      657,      529,      532,      660
     181,      721,      593,      529,      657
     197,      785,      657,      660,      788
     213,      849,      721,      657,      785
     229,      913,      785,      788,      916
     245,      977,      849,      785,      913
     261,     1041,      913,      916,     1044
     277,     1105,      977,      913,     1041
     293,     1169,     1041,     1044,     1172
     309,     1233,     1105,     1041,     1169
** ... 759 like lines cut
*ELEMENT, TYPE=S4, ELSET=x6
       6,       21,       22,       23,       24
      22,       85,       86,       22,       21
      38,      149,       21,       24,      152
      54,      213,       85,       21,      149
      70,      277,      149,      152,      280
      86,      341,      213,      149,      277
     102,      405,      277,      280,      408
     118,      469,      341,      277,      405
     134,      533,      405,      408,      536
     150,      597,      469,      405,      533
     166,      661,      533,      536,      664
     182,      725,      597,      533,      661
     198,      789,      661,      664,      792
     214,      853,      725,      661,      789
     230,      917,      789,      792,      920
     246,      981,      853,      789,      917
     262,     1045,      917,      920,     1048
     278,     1109,      981,      917,     1045
     294,     1173,     1045,     1048,     1176
     310,     1237,     1109,     1045,     1173
** ... 759 like lines cut
*ELEMENT, TYPE=S4, ELSET=x7
       7,       25,       26,       27,       28
      23,       89,       90,       26,       25
      39,      153,       25,       28,      156
      55,      217,       89,       25,      153
      71,      281,      153,      156,      284
      87,      345,      217,      153,      281
     103,      409,      281,      284,      412
     119,      473,      345,      281,      409
     135,      537,      409,      412,      540
     151,      601,      473,      409,      537
     167,      665,      537,      540,      668
     183,      729,      601,      537,      665
     199,      793,      665,      668,      796
     215,      857,      729,      665,      793
     231,      921,      793,      796,      924
     247,      985,      857,      793,      921
     263,     1049,      921,      924,     1052
     279,     1113,      985,      921,     1049
     295,     1177,     1049,     1052,     1180
     311,     1241,     1113,     1049,     1177
** ... 759 like lines cut
*ELEMENT, TYPE=S4, ELSET=x8
       8,       29,       30,       31,       32
      24,       93,       94,       30,       29
      40,      157,       29,       32,      160
      56,      221,       93,       29,      157
      72,      285,      157,      160,      288
      88,      349,      221,      157,      285
     104,      413,      285,      288,      416
     120,      477,      349,      285,      413
     136,      541,      413,      416,      544
     152,      605,      477,      413,      541
     168,      669,      541,      544,      672
     184,      733,      605,      541,      669
     200,      797,      669,      672,      800
     216,      861,      733,      669,      797
     232,      925,      797,      800,      928
     248,      989,      861,      797,      925
     264,     1053,      925,      928,     1056
     280,     1117,      989,      925,     1053
     296,     1181,     1053,     1056,     1184
     312,     1245,     1117,     1053,     1181
** ... 759 like lines cut
*ELEMENT, TYPE=S4, ELSET=x9
       9,       33,       34,       35,       36
      25,       97,       98,       34,       33
      41,      161,       33,       36,      164
      57,      225,       97,       33,      161
      73,      289,      161,      164,      292
      89,      353,      225,      161,      289
     105,      417,      289,      292,      420
     121,      481,      353,      289,      417
     137,      545,      417,      420,      548
     153,      609,      481,      417,      545
     169,      673,      545,      548,      676
     185,      737,      609,      545,      673
     201,      801,      673,      676,      804
     217,      865,      737,      673,      801
     233,      929,      801,      804,      932
     249,      993,      865,      801,      929
     265,     1057,      929,      932,     1060
     281,     1121,      993,      929,     1057
     297,     1185,     1057,     1060,     1188
     313,     1249,     1121,     1057,     1185
** ... 759 like lines cut
*ELEMENT, TYPE=S4, ELSET=x10
      10,       37,       38,       39,       40
      26,      101,      102,       38,       37
      42,      165,       37,       40,      168
      58,      229,      101,       37,      165
      74,      293,      165,      168,      296
      90,      357,      229,      165,      293
     106,      421,      293,      296,      424
     122,      485,      357,      293,      421
     138,      549,      421,      424,      552
     154,      613,      485,      421,      549
     170,      677,      549,      552,      680
     186,      741,      613,      549,      677
     202,      805,      677,      680,      808
     218,      869,      741,      677,      805
     234,      933,      805,      808,      936
     250,      997,      869,      805,      933
     266,     1061,      933,      936,     1064
     282,     1125,      997,      933,     1061
     298,     1189,     1061,     1064,     1192
     314,     1253,     1125,     1061,     1189
** ... 759 like lines cut
*ELEMENT, TYPE=S4, ELSET=x11
      11,       41,       42,       43,       44
      27,      105,      106,       42,       41
      43,      169,       41,       44,      172
      59,      233,      105,       41,      169
      75,      297,      169,      172,      300
      91,      361,      233,      169,      297
     107,      425,      297,      300,      428
     123,      489,      361,      297,      425
     139,      553,      425,      428,      556
     155,      617,      489,      425,      553
     171,      681,      553,      556,      684
     187,      745,      617,      553,      681
     203,      809,      681,      684,      812
     219,      873,      745,      681,      809
     235,      937,      809,      812,      940
     251,     1001,      873,      809,      937
     267,     1065,      937,      940,     1068
     283,     1129,     1001,      937,     1065
     299,     1193,     1065,     1068,     1196
     315,     1257,     1129,     1065,     1193
** ... 759 like lines cut
*ELEMENT, TYPE=S4, ELSET=x12
      12,       45,       46,       47,       48
      28,      109,      110,       46,       45
      44,      173,       45,       48,      176
      60,      237,      109,       45,      173
      76,      301,      173,      176,      304
      92,      365,      237,      173,      301
     108,      429,      301,      304,      432
     124,      493,      365,      301,      429
     140,      557,      429,      432,      560
     156,      621,      493,      429,      557
     172,      685,      557,      560,      688
     188,      749,      621,      557,      685
     204,      813,      685,      688,      816
     220,      877,      749,      685,      813
     236,      941,      813,      816,      944
     252,     1005,      877,      813,      941
     268,     1069,      941,      944,     1072
     284,     1133,     1005,      941,     1069
     300,     1197,     1069,     1072,     1200
     316,     1261,     1133,     1069,     1197
** ... 759 like lines cut
*ELEMENT, TYPE=S4, ELSET=x13
      13,       49,       50,       51,       52
      29,      113,      114,       50,       49
      45,      177,       49,       52,      180
      61,      241,      113,       49,      177
      77,      305,      177,      180,      308
      93,      369,      241,      177,      305
     109,      433,      305,      308,      436
     125,      497,      369,      305,      433
     141,      561,      433,      436,      564
     157,      625,      497,      433,      561
     173,      689,      561,      564,      692
     189,      753,      625,      561,      689
     205,      817,      689,      692,      820
     221,      881,      753,      689,      817
     237,      945,      817,      820,      948
     253,     1009,      881,      817,      945
     269,     1073,      945,      948,     1076
     285,     1137,     1009,      945,     1073
     301,     1201,     1073,     1076,     1204
     317,     1265,     1137,     1073,     1201
** ... 759 like lines cut
*ELEMENT, TYPE=S4, ELSET=x14
      14,       53,       54,       55,       56
      30,      117,      118,       54,       53
      46,      181,       53,       56,      184
      62,      245,      117,       53,      181
      78,      309,      181,      184,      312
      94,      373,      245,      181,      309
     110,      437,      309,      312,      440
     126,      501,      373,      309,      437
     142,      565,      437,      440,      568
     158,      629,      501,      437,      565
     174,      693,      565,      568,      696
     190,      757,      629,      565,      693
     206,      821,      693,      696,      824
     222,      885,      757,      693,      821
     238,      949,      821,      824,      952
     254,     1013,      885,      821,      949
     270,     1077,      949,      952,     1080
     286,     1141,     1013,      949,     1077
     302,     1205,     1077,     1080,     1208
     318,     1269,     1141,     1077,     1205
** ... 759 like lines cut
*ELEMENT, TYPE=S4, ELSET=x15
      15,       57,       58,       59,       60
      31,      121,      122,       58,       57
      47,      185,       57,       60,      188
      63,      249,      121,       57,      185
      79,      313,      185,      188,      316
      95,      377,      249,      185,      313
     111,      441,      313,      316,      444
     127,      505,      377,      313,      441
     143,      569,      441,      444,      572
     159,      633,      505,      441,      569
     175,      697,      569,      572,      700
     191,      761,      633,      569,      697
     207,      825,      697,      700,      828
     223,      889,      761,      697,      825
     239,      953,      825,      828,      956
     255,     1017,      889,      825,      953
     271,     1081,      953,      956,     1084
     287,     1145,     1017,      953,     1081
     303,     1209,     1081,     1084,     1212
     319,     1273,     1145,     1081,     1209
** ... 759 like lines cut
*ELEMENT, TYPE=S4, ELSET=x16
      16,       61,       62,       63,       64
      32,      125,      126,       62,       61
      48,      189,       61,       64,      192
      64,      253,      125,       61,      189
      80,      317,      189,      192,      320
      96,      381,      253,      189,      317
     112,      445,      317,      320,      448
     128,      509,      381,      317,      445
     144,      573,      445,      448,      576
     160,      637,      509,      445,      573
     176,      701,      573,      576,      704
     192,      765,      637,      573,      701
     208,      829,      701,      704,      832
     224,      893,      765,      701,      829
     240,      957,      829,      832,      960
     256,     1021,      893,      829,      957
     272,     1085,      957,      960,     1088
     288,     1149,     1021,      957,     1085
     304,     1213,     1085,     1088,     1216
     320,     1277,     1149,     1085,     1213
** ... 759 like lines cut
**
** 
**
**
** 
**
**
** SECTION DATA
**
*SHELL SECTION, ELSET=x1, MATERIAL=Default MATERIAL
                      1.,
*SHELL SECTION, ELSET=x2, MATERIAL=Default MATERIAL
                      1.,
*SHELL SECTION, ELSET=x3, MATERIAL=Default MATERIAL
                      1.,
*SHELL SECTION, ELSET=x4, MATERIAL=Default MATERIAL
                      1.,
*SHELL SECTION, ELSET=x5, MATERIAL=Default MATERIAL
                      1.,
*SHELL SECTION, ELSET=x6, MATERIAL=Default MATERIAL
                      1.,
*SHELL SECTION, ELSET=x7, MATERIAL=Default MATERIAL
                      1.,
*SHELL SECTION, ELSET=x8, MATERIAL=Default MATERIAL
                      1.,
*SHELL SECTION, ELSET=x9, MATERIAL=Default MATERIAL
                      1.,
*SHELL SECTION, ELSET=x10, MATERIAL=Default MATERIAL
                      1.,
*SHELL SECTION, ELSET=x11, MATERIAL=Default MATERIAL
                      1.,
*SHELL SECTION, ELSET=x12, MATERIAL=Default MATERIAL
                      1.,
*SHELL SECTION, ELSET=x13, MATERIAL=Default MATERIAL
                      1.,
*SHELL SECTION, ELSET=x14, MATERIAL=Default MATERIAL
                      1.,
*SHELL SECTION, ELSET=x15, MATERIAL=Default MATERIAL
                      1.,
*SHELL SECTION, ELSET=x16, MATERIAL=Default MATERIAL
                      1.,
**
** MATERIALS
**
**
**Default MATERIAL
**
*MATERIAL, NAME=Default MATERIAL
*DENSITY
                 7.85E-9,
*ELASTIC, TYPE=ISOTROPIC
                 210000.,                      0.3
**
** 
**
