**
**
**
** file created by  A N S A  Fri Mar  8 16:19:04 2013
**
** output from :
**
** /net/linux273/fs1/can/tpm_can_rtm/tpm_iso/Untitled
**
**
** ABAQUS names' user prefix library
**
** AMPLITUDE = XY
** BEAM_SECTION = P
** COHESIVE_SECTION = P
** CONNECTOR_DERIVED_COMPONENT = D
** CONNECTOR_DERIVED_COMPONENT(MatDB) = D
** CONNECTOR_SECTION = P
** CONTACT_CLEARANCE = CL
** CONTACT_PAIR = G
** CONTINUUM_SHELL_SECTION = P
** COUPLING = G
** CUTTING_SURFACE = G
** DASHPOT_PROP = A
** FASTENER_PROPERTY = A
** FILTER = F
** GAP_PROP = A
** GASKET_SECTION = P
** INTERACTION_OUTPUT = I
** JOINT_PROP = A
** MATERIAL = 
** ORIENTATION_C = OR
** ORIENTATION_NODES_C = OR
** ORIENTATION_NODES_DYN = OR
** ORIENTATION_NODES_R = OR
** ORIENTATION_NODES_S = OR
** ORIENTATION_OFFSET_TO_NODES = OR
** ORIENTATION_R = OR
** ORIENTATION_S = OR
** SECTION_CONTROL = A
** SET = S
** SHELL_SECTION = P
** SOLID_SECTION = P
** SPRING_PROP = A
** SURFACE = G
** SURFACE_INTERACTION = A
** SURFACE_SECTION = P
** TRUSS_PROP = A
**
*HEADING

**
**
**
*NODE
      84,                       0.,                       0.,                       0.
     103,                       0.,                     100.,                       0.
     104,                     100.,                       0.,                       0.
     123,                     100.,                     100.,                       0.
     432,                       0.,        9.999999999999972,                       0.
     433,                       0.,       19.999999999999986,                       0.
     434,                       0.,                      30.,                       0.
     435,                       0.,        39.99999999999997,                       0.
     436,                       0.,       49.999999999999986,                       0.
     437,                       0.,                      60.,                       0.
     438,                       0.,                      70.,                       0.
     439,                       0.,        79.99999999999999,                       0.
     440,                       0.,                      90.,                       0.
     532,        9.999999999999972,                     100.,                       0.
     533,       19.999999999999986,                     100.,                       0.
     534,                      30.,                     100.,                       0.
     535,        39.99999999999997,                     100.,                       0.
     536,       49.999999999999986,                     100.,                       0.
     537,                      60.,                     100.,                       0.
     538,                      70.,                     100.,                       0.
** ... 222 like lines cut
**
** SOLID ELEMENTS
**
*ELEMENT, TYPE=C3D8, ELSET=P2;SOLID_SECTION
     101,      432,       84,      713,      632,      842,      803,      730,      831
     102,      632,      633,      433,      432,      831,      830,      841,      842
     103,      632,      713,      714,      634,      831,      730,      832,      829
     104,      635,      434,      433,      633,      828,      840,      841,      830
     105,      634,      637,      633,      632,      829,      826,      830,      831
     106,      636,      634,      714,      715,      827,      829,      832,      833
     107,      435,      434,      635,      638,      802,      840,      828,      825
     108,      637,      634,      636,      639,      826,      829,      827,      824
     109,      633,      637,      641,      635,      830,      826,      744,      828
     110,      640,      636,      715,      716,      823,      827,      833,      834
     111,      638,      643,      436,      435,      825,      801,      805,      802
     112,      642,      638,      635,      641,      804,      825,      828,      744
     113,      639,      636,      640,      646,      824,      827,      823,      798
     114,      639,      645,      641,      637,      824,      799,      744,      826
     115,      716,      717,      644,      640,      834,      835,      800,      823
     116,      437,      436,      643,      650,      808,      805,      801,      794
     117,      644,      717,      718,      648,      800,      835,      836,      796
     118,      649,      643,      638,      642,      795,      801,      825,      804
     119,      641,      645,      647,      642,      744,      799,      797,      804
     120,      646,      652,      645,      639,      798,      792,      799,      824
** ... 80 like lines cut
**
** 
**
**
** 
**
**
** SECTION DATA
**
*SOLID SECTION, ELSET=P2;SOLID_SECTION, MATERIAL=Default MATERIAL
**
** MATERIALS
**
**
**Default MATERIAL
**
*MATERIAL, NAME=Default MATERIAL
*DENSITY
                 7.85E-9,
*ELASTIC, TYPE=ISOTROPIC
                 210000.,                      0.3
**
** 
**
