**
**
**
** file created by  A N S A  Wed May  1 18:23:11 2013
**
** output from :
**
** /net/linux273/fs1/can/tpm_can_rtm/tpm_aniso_csr/Untitled
**
**
** ABAQUS names' user prefix library
**
** AMPLITUDE = XY
** BEAM_SECTION = P
** COHESIVE_SECTION = P
** CONNECTOR_DERIVED_COMPONENT = D
** CONNECTOR_DERIVED_COMPONENT(MatDB) = D
** CONNECTOR_SECTION = P
** CONTACT_CLEARANCE = CL
** CONTACT_PAIR = G
** CONTINUUM_SHELL_SECTION = P
** COUPLING = G
** CUTTING_SURFACE = G
** DASHPOT_PROP = A
** FASTENER_PROPERTY = A
** FILTER = F
** GAP_PROP = A
** GASKET_SECTION = P
** INTERACTION_OUTPUT = I
** JOINT_PROP = A
** MATERIAL = 
** ORIENTATION_C = OR
** ORIENTATION_NODES_C = OR
** ORIENTATION_NODES_DYN = OR
** ORIENTATION_NODES_R = OR
** ORIENTATION_NODES_S = OR
** ORIENTATION_OFFSET_TO_NODES = OR
** ORIENTATION_R = OR
** ORIENTATION_S = OR
** SECTION_CONTROL = A
** SET = S
** SHELL_SECTION = P
** SOLID_SECTION = P
** SPRING_PROP = A
** SURFACE = G
** SURFACE_INTERACTION = A
** SURFACE_SECTION = P
** TRUSS_PROP = A
**
*HEADING

**
**
**
*NODE
    4736,       -9.835401473322449,       0.8786191428672786,        -48.7086169623744
    4737,       -9.672020390795218,       2.0837216928818116,       -48.95610336917122
    4738,        -9.56997115176345,       1.2972135481630802,       -47.50656923869033
    4739,        -9.48558359734679,       3.0480308622089356,       -49.21988315254463
    4740,        -9.35961194567496,       2.6840017170726216,       -47.86560077678389
    4741,       -9.072610857141981,        1.456037228940427,      -46.195258481105185
    4742,       -8.990819739352855,        4.075372669825539,       -48.76794428799808
    4743,       -8.496443616247412,        5.157435500211082,       -49.15955317184749
    4744,       -8.845941050770675,        3.171233731830556,       -46.69143279503167
    4745,       -8.545787895582219,       1.4332866601241365,       -45.04560777036906
    4746,       -7.971865037550363,        5.820819886422144,         -48.779079182421
    4747,       -8.332407240744404,       2.6882763676854964,       -45.25772059865383
    4748,       -8.296411900426634,        4.895359478423406,       -47.49119563681846
    4749,        -7.82961434710117,       1.3459592884977052,       -44.00598202744142
    4750,       -8.016639597852974,        3.936770021023205,      -45.624479316324305
    4751,       -7.232768667853233,        6.813630852921307,       -49.12019621037132
    4752,      -7.5100767823598344,        6.380180873706741,       -48.37818738111665
    4753,        -7.68996485376868,        5.895896099400404,       -47.68120212190016
    4754,       -7.644632692084281,        2.749393227743445,      -44.222998879315234
    4755,       -6.987586448390638,       1.4311511262653733,       -43.05496329952578
** ... 810 like lines cut
**
** MEMBRANE and STRUCTURAL ELEMENTS
**
*ELEMENT, TYPE=S4, ELSET=P3;ball
    2885,     5373,     4736,     4905,     5588
    2886,     5373,     5374,     4737,     4736
    2887,     4738,     4904,     4905,     4736
    2888,     4737,     5374,     5594,     4739
    2889,     4736,     4737,     4740,     4738
    2890,     4867,     4904,     4738,     4741
    2891,     4739,     5594,     5622,     4742
    2892,     4742,     4740,     4737,     4739
    2893,     4741,     4738,     4740,     4744
    2894,     4741,     4745,     4866,     4867
    2895,     4742,     5622,     5387,     4743
    2896,     4742,     4748,     4744,     4740
    2897,     4747,     4745,     4741,     4744
    2898,     4743,     4746,     4748,     4742
    2899,     4910,     4866,     4745,     4749
    2900,     5387,     5388,     4746,     4743
    2902,     4749,     4745,     4747,     4754
    2903,     4750,     4744,     4748,     4756
    2904,     4752,     4746,     5388,     4751
    2905,     4753,     4748,     4746,     4752
** ... 804 like lines cut
*ELEMENT, TYPE=S3R, ELSET=P3;ball
    2884,     4834,     4836,     4835
    2901,     4744,     4750,     4747
    3093,     4961,     4963,     4962
    3297,     5059,     5106,     5058
    3301,     5194,     5196,     5195
    3372,     5294,     5291,     5417
    3703,     5381,     5485,     5380
    3713,     5368,     5366,     5468
**
** 
**
**
** 
**
**
** SECTION DATA
**
*SHELL SECTION, ELSET=P3;ball, MATERIAL=Default MATERIAL
                      1.,
**
** MATERIALS
**
**
**Default MATERIAL
**
*MATERIAL, NAME=Default MATERIAL
*DENSITY
                 7.85E-9,
*ELASTIC, TYPE=ISOTROPIC
                 210000.,                      0.3
**
** 
**
