**
**
**
** file created by  A N S A  Thu May  2 18:33:20 2013
**
** output from :
**
** /net/linux273/fs1/can/tpm_can_rtm/tpm_aniso_csr/Untitled
**
**
** ABAQUS names' user prefix library
**
** AMPLITUDE = XY
** BEAM_SECTION = P
** COHESIVE_SECTION = P
** CONNECTOR_DERIVED_COMPONENT = D
** CONNECTOR_DERIVED_COMPONENT(MatDB) = D
** CONNECTOR_SECTION = P
** CONTACT_CLEARANCE = CL
** CONTACT_PAIR = G
** CONTINUUM_SHELL_SECTION = P
** COUPLING = G
** CUTTING_SURFACE = G
** DASHPOT_PROP = A
** FASTENER_PROPERTY = A
** FILTER = F
** GAP_PROP = A
** GASKET_SECTION = P
** INTERACTION_OUTPUT = I
** JOINT_PROP = A
** MATERIAL = 
** ORIENTATION_C = OR
** ORIENTATION_NODES_C = OR
** ORIENTATION_NODES_DYN = OR
** ORIENTATION_NODES_R = OR
** ORIENTATION_NODES_S = OR
** ORIENTATION_OFFSET_TO_NODES = OR
** ORIENTATION_R = OR
** ORIENTATION_S = OR
** SECTION_CONTROL = A
** SET = S
** SHELL_SECTION = P
** SOLID_SECTION = P
** SPRING_PROP = A
** SURFACE = G
** SURFACE_INTERACTION = A
** SURFACE_SECTION = P
** TRUSS_PROP = A
**
*HEADING

**
**
**
*NODE
     209,                       0.,        9.719145357969625,       -48.38747211650294
     210,                       0.,        9.999999999999986,      -49.999999999999886
     211,                       0.,       12.999999999999986,      -49.999999999999886
     212,                       0.,         9.40214579355363,       -46.78164151378888
     213,                       0.,       12.719145357969627,       -48.38747211650296
     214,                       0.,        9.060526368700836,       -45.18085354389888
     215,                       0.,       12.402145793553625,       -46.78164151378886
     216,                       0.,        8.704619085249087,       -43.58316979990234
     217,                       0.,       12.060526368700838,        -45.1808535438989
     218,                       0.,        8.343745463366638,       -41.98659259612666
     219,                       0.,       11.704619085249082,       -43.58316979990236
     220,                       0.,        7.986382186511632,       -40.38922331944028
     221,                       0.,        11.34374546336663,      -41.986592596126656
     222,                       0.,        7.640292382796588,        -38.7893766389783
     223,                       0.,       10.986382186511626,        -40.3892233194403
     224,                       0.,        7.312615273008671,      -37.185665512406004
     225,                       0.,       10.640292382796577,       -38.78937663897829
     226,                       0.,        7.009912178601719,       -35.57706535084066
     227,                       0.,        10.31261527300866,       -37.18566551240599
     228,                       0.,        6.738169990113763,      -33.962960327743886
** ... 3820 like lines cut
**
** SOLID ELEMENTS
**
*ELEMENT, TYPE=C3D8, ELSET=SOLID_SECTION
      94,      708,      710,      316,      318,      709,      711,      315,      317
      95,      580,      582,      710,      708,      581,      583,      711,      709
      96,      452,      454,      582,      580,      453,      455,      583,      581
      97,      845,      843,      454,      452,      844,      842,      455,      453
      98,      973,      971,      843,      845,      972,      970,      842,      844
      99,     1101,     1099,      971,      973,     1100,     1098,      970,      972
     100,     1229,     1227,     1099,     1101,     1228,     1226,     1098,     1100
     101,     1357,     1355,     1227,     1229,     1356,     1354,     1226,     1228
     102,     1485,     1483,     1355,     1357,     1484,     1482,     1354,     1356
     103,     1613,     1611,     1483,     1485,     1612,     1610,     1482,     1484
     104,     1741,     1739,     1611,     1613,     1740,     1738,     1610,     1612
     105,     1869,     1867,     1739,     1741,     1868,     1866,     1738,     1740
     106,     1997,     1995,     1867,     1869,     1996,     1994,     1866,     1868
     107,     2125,     2123,     1995,     1997,     2124,     2122,     1994,     1996
     108,     2253,     2251,     2123,     2125,     2252,     2250,     2122,     2124
     109,     2381,     2379,     2251,     2253,     2380,     2378,     2250,     2252
     110,     2509,     2507,     2379,     2381,     2508,     2506,     2378,     2380
     111,     2637,     2635,     2507,     2509,     2636,     2634,     2506,     2508
     112,     2765,     2763,     2635,     2637,     2764,     2762,     2634,     2636
     113,     2893,     2891,     2763,     2765,     2892,     2890,     2762,     2764
** ... 2770 like lines cut
**
** 
**
**
** 
**
**
** SECTION DATA
**
** MATERIALS
**
**
**Default MATERIAL
**
*MATERIAL, NAME=Default MATERIAL
*DENSITY
                 7.85E-9,
*ELASTIC, TYPE=ISOTROPIC
                 210000.,                      0.3
**
** 
**
**
** SURFACE DEFINITIONS 
**
*SURFACE, NAME=slave_contact, TYPE=ELEMENT
     124, S2
     125, S2
     126, S2
     127, S2
     128, S2
     129, S2
     130, S2
     131, S2
     132, S2
     133, S2
     134, S2
     135, S2
     136, S2
     137, S2
     138, S2
     139, S2
     140, S2
     141, S2
     142, S2
     143, S2
** ... 910 like lines cut
** 
** SETS
** 
*SOLID SECTION, ELSET=P2;my_solids, MATERIAL=Default MATERIAL
0.15, 3, somemat, 0 
0.15, 3, somemat, 45
0.15, 3, somemat, -45
0.15, 3, somemat, 90
**
