**
**
**
** file created by  A N S A  Tue Apr 16 16:01:19 2013
**
** output from :
**
** /net/linux273/fs1/can/tpm_can_rtm/tpm_aniso_csr/Untitled
**
**
** ABAQUS names' user prefix library
**
** AMPLITUDE = XY
** BEAM_SECTION = P
** COHESIVE_SECTION = P
** CONNECTOR_DERIVED_COMPONENT = D
** CONNECTOR_DERIVED_COMPONENT(MatDB) = D
** CONNECTOR_SECTION = P
** CONTACT_CLEARANCE = CL
** CONTACT_PAIR = G
** CONTINUUM_SHELL_SECTION = P
** COUPLING = G
** CUTTING_SURFACE = G
** DASHPOT_PROP = A
** FASTENER_PROPERTY = A
** FILTER = F
** GAP_PROP = A
** GASKET_SECTION = P
** INTERACTION_OUTPUT = I
** JOINT_PROP = A
** MATERIAL = 
** ORIENTATION_C = OR
** ORIENTATION_NODES_C = OR
** ORIENTATION_NODES_DYN = OR
** ORIENTATION_NODES_R = OR
** ORIENTATION_NODES_S = OR
** ORIENTATION_OFFSET_TO_NODES = OR
** ORIENTATION_R = OR
** ORIENTATION_S = OR
** SECTION_CONTROL = A
** SET = S
** SHELL_SECTION = P
** SOLID_SECTION = P
** SPRING_PROP = A
** SURFACE = G
** SURFACE_INTERACTION = A
** SURFACE_SECTION = P
** TRUSS_PROP = A
**
*HEADING

**
**
**
*NODE
       1,                       0.,                      10.,                    0.625
       2,                       0.,                       0.,                    0.625
       3,                      10.,                       0.,                    0.625
       4,                      10.,                      10.,                    0.625
       5,                       0.,                      10.,                    1.875
       6,                       0.,                       0.,                    1.875
       7,                      10.,                       0.,                    1.875
       8,                      10.,                      10.,                    1.875
       9,                       0.,                      10.,                    3.125
      10,                       0.,                       0.,                    3.125
      11,                      10.,                       0.,                    3.125
      12,                      10.,                      10.,                    3.125
      13,                       0.,                      10.,                    4.375
      14,                       0.,                       0.,                    4.375
      15,                      10.,                       0.,                    4.375
      16,                      10.,                      10.,                    4.375
      17,                       0.,                      10.,                    5.625
      18,                       0.,                       0.,                    5.625
      19,                      10.,                       0.,                    5.625
      20,                      10.,                      10.,                    5.625
** ... 948 like lines cut
**
** MEMBRANE and STRUCTURAL ELEMENTS
**
*ELEMENT, TYPE=S4, ELSET=X1
       1,        1,        2,        3,        4
       9,        4,       34,       35,        1
      17,        4,        3,       67,       68
      25,       97,       98,       35,       34
      33,       68,      130,       34,        4
      41,      161,       68,       67,      164
      49,      193,       98,       97,      196
      57,      130,       68,      161,      228
      65,       34,      130,      259,       97
      73,      289,      161,      164,      292
      81,      196,      322,      323,      193
      89,      353,      196,       97,      259
      97,      228,      161,      289,      388
     105,      228,      418,      259,      130
     113,      292,      450,      451,      289
     121,      481,      323,      322,      484
     129,      451,      450,      515,      516
     137,      545,      322,      196,      353
     145,      259,      418,      579,      353
     153,      388,      610,      418,      228
** ... 80 like lines cut
*ELEMENT, TYPE=S4, ELSET=X2
       2,        5,        6,        7,        8
      10,        8,       38,       39,        5
      18,        8,        7,       71,       72
      26,      101,      102,       39,       38
      34,       72,      134,       38,        8
      42,      165,       72,       71,      168
      50,      197,      102,      101,      200
      58,      134,       72,      165,      232
      66,       38,      134,      263,      101
      74,      293,      165,      168,      296
      82,      200,      326,      327,      197
      90,      357,      200,      101,      263
      98,      232,      165,      293,      392
     106,      232,      422,      263,      134
     114,      296,      454,      455,      293
     122,      485,      327,      326,      488
     130,      455,      454,      519,      520
     138,      549,      326,      200,      357
     146,      263,      422,      583,      357
     154,      392,      614,      422,      232
** ... 80 like lines cut
*ELEMENT, TYPE=S4, ELSET=X3
       3,        9,       10,       11,       12
      11,       12,       42,       43,        9
      19,       12,       11,       75,       76
      27,      105,      106,       43,       42
      35,       76,      138,       42,       12
      43,      169,       76,       75,      172
      51,      201,      106,      105,      204
      59,      138,       76,      169,      236
      67,       42,      138,      267,      105
      75,      297,      169,      172,      300
      83,      204,      330,      331,      201
      91,      361,      204,      105,      267
      99,      236,      169,      297,      396
     107,      236,      426,      267,      138
     115,      300,      458,      459,      297
     123,      489,      331,      330,      492
     131,      459,      458,      523,      524
     139,      553,      330,      204,      361
     147,      267,      426,      587,      361
     155,      396,      618,      426,      236
** ... 80 like lines cut
*ELEMENT, TYPE=S4, ELSET=X4
       4,       13,       14,       15,       16
      12,       16,       46,       47,       13
      20,       16,       15,       79,       80
      28,      109,      110,       47,       46
      36,       80,      142,       46,       16
      44,      173,       80,       79,      176
      52,      205,      110,      109,      208
      60,      142,       80,      173,      240
      68,       46,      142,      271,      109
      76,      301,      173,      176,      304
      84,      208,      334,      335,      205
      92,      365,      208,      109,      271
     100,      240,      173,      301,      400
     108,      240,      430,      271,      142
     116,      304,      462,      463,      301
     124,      493,      335,      334,      496
     132,      463,      462,      527,      528
     140,      557,      334,      208,      365
     148,      271,      430,      591,      365
     156,      400,      622,      430,      240
** ... 80 like lines cut
*ELEMENT, TYPE=S4, ELSET=X5
       5,       17,       18,       19,       20
      13,       20,       50,       51,       17
      21,       20,       19,       83,       84
      29,      113,      114,       51,       50
      37,       84,      146,       50,       20
      45,      177,       84,       83,      180
      53,      209,      114,      113,      212
      61,      146,       84,      177,      244
      69,       50,      146,      275,      113
      77,      305,      177,      180,      308
      85,      212,      338,      339,      209
      93,      369,      212,      113,      275
     101,      244,      177,      305,      404
     109,      244,      434,      275,      146
     117,      308,      466,      467,      305
     125,      497,      339,      338,      500
     133,      467,      466,      531,      532
     141,      561,      338,      212,      369
     149,      275,      434,      595,      369
     157,      404,      626,      434,      244
** ... 80 like lines cut
*ELEMENT, TYPE=S4, ELSET=X6
       6,       21,       22,       23,       24
      14,       24,       54,       55,       21
      22,       24,       23,       87,       88
      30,      117,      118,       55,       54
      38,       88,      150,       54,       24
      46,      181,       88,       87,      184
      54,      213,      118,      117,      216
      62,      150,       88,      181,      248
      70,       54,      150,      279,      117
      78,      309,      181,      184,      312
      86,      216,      342,      343,      213
      94,      373,      216,      117,      279
     102,      248,      181,      309,      408
     110,      248,      438,      279,      150
     118,      312,      470,      471,      309
     126,      501,      343,      342,      504
     134,      471,      470,      535,      536
     142,      565,      342,      216,      373
     150,      279,      438,      599,      373
     158,      408,      630,      438,      248
** ... 80 like lines cut
*ELEMENT, TYPE=S4, ELSET=X7
       7,       25,       26,       27,       28
      15,       28,       58,       59,       25
      23,       28,       27,       91,       92
      31,      121,      122,       59,       58
      39,       92,      154,       58,       28
      47,      185,       92,       91,      188
      55,      217,      122,      121,      220
      63,      154,       92,      185,      252
      71,       58,      154,      283,      121
      79,      313,      185,      188,      316
      87,      220,      346,      347,      217
      95,      377,      220,      121,      283
     103,      252,      185,      313,      412
     111,      252,      442,      283,      154
     119,      316,      474,      475,      313
     127,      505,      347,      346,      508
     135,      475,      474,      539,      540
     143,      569,      346,      220,      377
     151,      283,      442,      603,      377
     159,      412,      634,      442,      252
** ... 80 like lines cut
*ELEMENT, TYPE=S4, ELSET=X8
       8,       29,       30,       31,       32
      16,       32,       62,       63,       29
      24,       32,       31,       95,       96
      32,      125,      126,       63,       62
      40,       96,      158,       62,       32
      48,      189,       96,       95,      192
      56,      221,      126,      125,      224
      64,      158,       96,      189,      256
      72,       62,      158,      287,      125
      80,      317,      189,      192,      320
      88,      224,      350,      351,      221
      96,      381,      224,      125,      287
     104,      256,      189,      317,      416
     112,      256,      446,      287,      158
     120,      320,      478,      479,      317
     128,      509,      351,      350,      512
     136,      479,      478,      543,      544
     144,      573,      350,      224,      381
     152,      287,      446,      607,      381
     160,      416,      638,      446,      256
** ... 80 like lines cut
**
** 
**
**
** 
**
**
** SECTION DATA
**
*SHELL SECTION, ELSET=X1, MATERIAL=Default MATERIAL
                      1.,
*SHELL SECTION, ELSET=X2, MATERIAL=Default MATERIAL
                      1.,
*SHELL SECTION, ELSET=X3, MATERIAL=Default MATERIAL
                      1.,
*SHELL SECTION, ELSET=X4, MATERIAL=Default MATERIAL
                      1.,
*SHELL SECTION, ELSET=X5, MATERIAL=Default MATERIAL
                      1.,
*SHELL SECTION, ELSET=X6, MATERIAL=Default MATERIAL
                      1.,
*SHELL SECTION, ELSET=X7, MATERIAL=Default MATERIAL
                      1.,
*SHELL SECTION, ELSET=X8, MATERIAL=Default MATERIAL
                      1.,
**
** MATERIALS
**
**
**Default MATERIAL
**
*MATERIAL, NAME=Default MATERIAL
*DENSITY
                 7.85E-9,
*ELASTIC, TYPE=ISOTROPIC
                 210000.,                      0.3
**
** 
**
** 
** SETS
** 
*ELSET, ELSET=sanane
       2,       10,       18,       26,       34,       42,       50,       58,       66,       74,
      82,       90,       98,      106,      114,      122,      130,      138,      146,      154,
     162,      170,      178,      186,      194,      202,      210,      218,      226,      234,
     242,      250,      258,      266,      274,      282,      290,      298,      306,      314,
     322,      330,      338,      346,      354,      362,      370,      378,      386,      394,
     402,      410,      418,      426,      434,      442,      450,      458,      466,      474,
     482,      490,      498,      506,      514,      522,      530,      538,      546,      554,
     562,      570,      578,      586,      594,      602,      610,      618,      626,      634,
     642,      650,      658,      666,      674,      682,      690,      698,      706,      714,
     722,      730,      738,      746,      754,      762,      770,      778,      786,      794
